/*--------------------------------*- C++ -*----------------------------------*\
| =========                 |                                                 |
| \\      /  F ield         | OpenFOAM: The Open Source CFD Toolbox           |
|  \\    /   O peration     | Version:  v1912                                 |
|   \\  /    A nd           | Website:  www.openfoam.com                      |
|    \\/     M anipulation  |                                                 |
\*---------------------------------------------------------------------------*/
FoamFile
{
    version     2.0;
    format      ascii;
    class       polyBoundaryMesh;
    location    "constant/polyMesh";
    object      boundary;
}
// * * * * * * * * * * * * * * * * * * * * * * * * * * * * * * * * * * * * * //

5
(
    cylinderwalls
    {
        type            wall;
        inGroups        1(wall);
        nFaces          2500;
        startFace       1019100;
    }
    atmosphere
    {
        type            patch;
        nFaces          2500;
        startFace       1021600;
    }
    sides
    {
        type            patch;
        nFaces          10000;
        startFace       1024100;
    }
    stationaryWalls
    {
        type            wall;
        inGroups        1(wall);
        nFaces          10400;
        startFace       1034100;
    }
    outatmosphere
    {
        type            patch;
        nFaces          2400;
        startFace       1044500;
    }
)

// ************************************************************************* //
