/*--------------------------------*- C++ -*----------------------------------*\
  =========                 |
  \\      /  F ield         | OpenFOAM: The Open Source CFD Toolbox
   \\    /   O peration     | Website:  https://openfoam.org
    \\  /    A nd           | Version:  8
     \\/     M anipulation  |
\*---------------------------------------------------------------------------*/
FoamFile
{
    version     2.0;
    format      ascii;
    class       dictionary;
    object      blockMeshDict;
}
// * * * * * * * * * * * * * * * * * * * * * * * * * * * * * * * * * * * * * //

convertToMeters 1;

vertices
(
    (0.25 0 0) // 0
    (0 0.25 0) // 1
    (-0.25 0 0)// 2
    (0 -0.25 0)// 3

    (0.25 0 1)// 4
    (0 0.25 1)// 5
    (-0.25 0 1)// 6
    (0 -0.25 1)// 7

    (0 0 0) // 8
    (0 0 1) // centre points

    (2 1 -2) //10
    (-2 1 -2) //11
    (-2 -1 -2) //12
    (2 -1 -2) //13
    (2 1 3) //14
    (-2 1 3) //15
    (-2 -1 3) //16
    (2 -1 3) //17
);

blocks
(
    // cylinder
    hex (0 1 8 8 4 5 9 9) (25 25 100) simpleGrading (1 1 1)
    hex (1 2 8 8 5 6 9 9) (25 25 100) simpleGrading (1 1 1)
    hex (2 3 8 8 6 7 9 9) (25 25 100) simpleGrading (1 1 1)
    hex (3 0 8 8 7 4 9 9) (25 25 100) simpleGrading (1 1 1)

    // cube
    hex (10 11 12 13 14 15 16 17) (40 40 60) simpleGrading (1 1 1)
);

edges
(
    arc 0 1 (0.17677 0.17677 0)
    arc 4 5 (0.17677 0.17677 1)

    arc 1 2 (-0.17677 0.17677 0)
    arc 5 6 (-0.17677 0.17677 1)

    arc 2 3 (-0.17677 -0.17677 0)
    arc 6 7 (-0.17677 -0.17677 1)

    arc 3 0 (0.17677 -0.17677 0)
    arc 7 4 (0.17677 -0.17677 1)
);

boundary
(
    cylinderwalls
    {
        type wall;
        faces
        (
            (0 8 8 1)
            (1 8 8 2)
            (2 8 8 3)
            (3 8 8 0)
        );
    }
    atmosphere
    {
        type patch;
        faces
        (
            (5 9 9 4)
            (6 9 9 5)
            (7 9 9 6)
            (4 9 9 7)
        );
    }
    sides
    {
        type patch;
        faces
        (
            (0 1 5 4)
            (1 2 6 5)
            (2 3 7 6)
            (3 0 4 7)
        );
    }

    
    stationaryWalls
    {
        type wall;
        faces
        (
            (12 11 10 13)
            (10 14 17 13)
            (13 17 16 12)
            (12 16 15 11)
            (16 17 14 15)
        );
    }
    outatmosphere
    {
        type patch;
        faces
        (
            (11 15 14 10)
        );
    }
);

mergePatchPairs
(
);

// ************************************************************************* //
