/*--------------------------------*- C++ -*----------------------------------*\
  =========                 |
  \\      /  F ield         | OpenFOAM: The Open Source CFD Toolbox
   \\    /   O peration     | Website:  https://openfoam.org
    \\  /    A nd           | Version:  8
     \\/     M anipulation  |
\*---------------------------------------------------------------------------*/
FoamFile
{
    version     2.0;
    format      ascii;
    class       dictionary;
    object      blockMeshDict;
}
// * * * * * * * * * * * * * * * * * * * * * * * * * * * * * * * * * * * * * //

convertToMeters 1;

vertices
(
    (0.25 0 0)
    (0 0.25 0)
    (-0.25 0 0)
    (0 -0.25 0)

    (0.25 0 1)
    (0 0.25 1)
    (-0.25 0 1)
    (0 -0.25 1)

    (0 0 0)
    (0 0 1) // centre points
);

blocks
(
    hex (0 1 8 8 4 5 9 9) (25 25 100) simpleGrading (1 1 1)
    hex (1 2 8 8 5 6 9 9) (25 25 100) simpleGrading (1 1 1)
    hex (2 3 8 8 6 7 9 9) (25 25 100) simpleGrading (1 1 1)
    hex (3 0 8 8 7 4 9 9) (25 25 100) simpleGrading (1 1 1)
);

edges
(
    arc 0 1 (0.17677 0.17677 0)
    arc 4 5 (0.17677 0.17677 1)

    arc 1 2 (-0.17677 0.17677 0)
    arc 5 6 (-0.17677 0.17677 1)

    arc 2 3 (-0.17677 -0.17677 0)
    arc 6 7 (-0.17677 -0.17677 1)

    arc 3 0 (0.17677 -0.17677 0)
    arc 7 4 (0.17677 -0.17677 1)
);

boundary
(
    walls
    {
        type wall;
        faces
        (
            (0 8 8 1)
            (1 8 8 2)
            (2 8 8 3)
            (3 8 8 0)
        );
    }
    atmosphere
    {
        type patch;
        faces
        (
            (5 9 9 4)
            (6 9 9 5)
            (7 9 9 6)
            (4 9 9 7)
        );
    }
    sides
    {
        type patch;
        faces
        (
            (0 1 5 4)
            (1 2 6 5)
            (2 3 7 6)
            (3 0 4 7)
        );
    }
);

mergePatchPairs
(
);

// ************************************************************************* //
